*Heading
** Job name: Axis_Indentation Model name: Model-1
** Generated by: Abaqus/CAE 2023
*Preprint, echo=NO, model=NO, history=NO, contact=NO
*Parameter
E = 300.
v = 0.3
C = E/(4.*(1.+v))
D = 6.*(1- 2.*v)/E
**
** PARTS
**
*Part, name=Indenter
*Node
      1,           0., -0.913685083
      2,           0.,          -1.
      3,           1.,           0.
      4,  0.913685083,           0.
      5,  0.581912994, -0.704412997
      6,           0.,           0.
      7,           0., -0.942456722
      8,           0., -0.971228361
      9, 0.0100049051, -0.999949932
     10, 0.0200088099, -0.999799788
     11, 0.0300107095, -0.999549568
     12, 0.0400096066, -0.999199271
     13, 0.0500044972, -0.998749018
     14, 0.0599943846, -0.998198688
     15,  0.069978267, -0.997548521
     16, 0.0799551383, -0.996798456
     17, 0.0899240151, -0.995948613
     18, 0.0998838842, -0.994999111
     19,  0.109833755,  -0.99394995
     20,  0.119772635, -0.992801368
** ... 2334 like lines cut
*Element, type=CAX4R
  1,   1,   7, 348, 321
  2,   7,   8, 349, 348
  3,   8,   2,   9, 349
  4, 321, 348, 350, 320
  5, 348, 349, 351, 350
  6, 349,   9,  10, 351
  7, 320, 350, 352, 319
  8, 350, 351, 353, 352
  9, 351,  10,  11, 353
 10, 319, 352, 354, 318
 11, 352, 353, 355, 354
 12, 353,  11,  12, 355
 13, 318, 354, 356, 317
 14, 354, 355, 357, 356
 15, 355,  12,  13, 357
 16, 317, 356, 358, 316
 17, 356, 357, 359, 358
 18, 357,  13,  14, 359
 19, 316, 358, 360, 315
 20, 358, 359, 361, 360
** ... 2214 like lines cut
*Element, type=CAX3
472,  919,  781,  783
473,  984,  982,  952
474, 1247, 1275, 1141
475, 1441, 1129, 1254
476, 1153, 1269, 1152
477, 1367, 1575, 1387
478, 1755, 1747, 1703
479, 1698, 1592, 1679
480, 1661, 1595, 1575
481, 1734, 1602, 1666
482, 1536, 1533, 2172
483, 1741, 1569, 1691
484, 2308, 2301, 2293
485, 1784, 2342, 1730
486, 1813, 1715, 1789
487, 1788, 1668, 1736
488, 1876, 2350, 1820
489, 1867, 1880, 1794
490, 2235, 1832, 1825
491, 1854,  662, 1788
** ... 27 like lines cut
*Nset, nset=Indenter, generate
    1,  2354,     1
*Elset, elset=Indenter, generate
    1,  2281,     1
** Section: Indenter
*Solid Section, elset=Indenter, material=Indenter
,
*End Part
**  
*Part, name=Specimen
*Node
      1,   5.19836092,         -10.
      2,   5.19836092,  -5.19836092
      3,           0.,  -5.19836092
      4,           0.,         -10.
      5,          10.,  -5.19836092
      6,          10.,         -10.
      7,           1.,          -1.
      8,           0.,          -1.
      9,          10.,           0.
     10,   5.19836092,           0.
     11,           1.,           0.
     12,           0.,           0.
     13,   5.19836092,  -9.19972706
     14,   5.19836092,  -8.39945412
     15,   5.19836092,   -7.5991807
     16,   5.19836092,  -6.79890728
     17,   5.19836092,  -5.99863434
     18,   4.33196735,  -5.19836092
     19,   3.46557403,  -5.19836092
     20,   2.59918046,  -5.19836092
** ... 3510 like lines cut
*Element, type=CAX4R
 1,   1,  13, 321,  32
 2,  13,  14, 322, 321
 3,  14,  15, 323, 322
 4,  15,  16, 324, 323
 5,  16,  17, 325, 324
 6,  17,   2,  18, 325
 7,  32, 321, 326,  31
 8, 321, 322, 327, 326
 9, 322, 323, 328, 327
10, 323, 324, 329, 328
11, 324, 325, 330, 329
12, 325,  18,  19, 330
13,  31, 326, 331,  30
14, 326, 327, 332, 331
15, 327, 328, 333, 332
16, 328, 329, 334, 333
17, 329, 330, 335, 334
18, 330,  19,  20, 335
19,  30, 331, 336,  29
20, 331, 332, 337, 336
** ... 3409 like lines cut
*Element, type=CAX3
73, 681, 680, 493
74, 495, 535, 497
75, 583, 532, 543
76, 528, 447, 572
77, 745, 563, 616
78, 737, 557, 556
79, 743, 742, 612
80, 641, 629, 624
81, 620, 575, 605
82, 654, 661, 658
83, 727, 656, 717
84, 634, 618, 599
85, 742, 734, 586
86, 746, 591, 593
544,  922,  965,  861
545, 1117,  980, 1006
546, 1115, 1003,  976
547,  919, 1112,  914
548, 1109, 1031,  978
549, 1110, 1005, 1008
** ... 6 like lines cut
*Nset, nset=Specimen, generate
    1,  3530,     1
*Elset, elset=Specimen, generate
    1,  3455,     1
** Region: (Specimen:Specimen), (Controls:Default)
*Elset, elset=_I1, internal, generate
   1,  955,    1
** Section: Specimen
*Solid Section, elset=_I1, material=Specimen
,
** Region: (Specimen:Specimen), (Controls:EC-1)
*Elset, elset=_I2, internal, generate
  956,  3455,     1
** Section: Specimen
*Solid Section, elset=_I2, controls=EC-1, material=Specimen
,
*End Part
**  
**
** ASSEMBLY
**
*Assembly, name=Assembly
**  
*Instance, name=Indenter-1, part=Indenter
          0.,          0.1,           0.
*End Instance
**  
*Instance, name=Specimen-1, part=Specimen
          0.,          -1.,           0.
*End Instance
**  
*Node
      1,           0.,  0.100000001,           0.
*Nset, nset=FarField, instance=Specimen-1
   1,   4,   5,   6,   9,  28,  29,  30,  31,  32,  38,  39,  40,  41,  42,  43
  44,  45,  46,  47, 141, 142, 143, 144, 145
*Elset, elset=FarField, instance=Specimen-1
   1,   7,  13,  19,  25,  31,  37,  43,  49,  55,  61,  67,  68,  69,  70,  71
  72, 513, 519, 525, 531, 537, 543
*Nset, nset=Indenter_RP
 1,
*Elset, elset=_Indenter_Coup_Surf_S3, internal, instance=Indenter-1, generate
 469,  471,    1
*Elset, elset=_Indenter_Coup_Surf_S4, internal, instance=Indenter-1
 523, 525, 610, 611, 612, 613, 614, 615, 707, 883
*Elset, elset=_Indenter_Coup_Surf_S2, internal, instance=Indenter-1
 619, 620, 981, 990
*Surface, type=ELEMENT, name=Indenter_Coup_Surf
_Indenter_Coup_Surf_S3, S3
_Indenter_Coup_Surf_S4, S4
_Indenter_Coup_Surf_S2, S2
*Elset, elset=_Indenter_Surf_S2, internal, instance=Indenter-1, generate
   3,  471,    3
*Surface, type=ELEMENT, name=Indenter_Surf
_Indenter_Surf_S2, S2
*Elset, elset=_Specimen_Surf_S2, internal, instance=Specimen-1, generate
 1005,  3455,    50
*Surface, type=ELEMENT, name=Specimen_Surf
_Specimen_Surf_S2, S2
** Constraint: RP_Coup
*Coupling, constraint name=RP_Coup, ref node=Indenter_RP, surface=Indenter_Coup_Surf
*Kinematic
*End Assembly
** 
** ELEMENT CONTROLS
** 
*Section Controls, name=EC-1, hourglass=ENHANCED
1., 1., 1.
** 
** MATERIALS
** 
*Material, name=Indenter
*Density
 7.85e-09,
*Elastic
200000., 0.3
*Material, name=Specimen
*Density
 7.85e-09,
*Hyperelastic, neo hooke
<C>,<D>
** 
** INTERACTION PROPERTIES
** 
*Include, input=INT_Props.inp
** 
** BOUNDARY CONDITIONS
** 
** Name: FIX Type: Displacement/Rotation
*Boundary
FarField, 1, 1
FarField, 2, 2
** Name: Indenter_Motion Type: Displacement/Rotation
*Boundary
Indenter_RP, 1, 1
Indenter_RP, 2, 2
Indenter_RP, 6, 6
** 
** INTERACTIONS
** 
** Interaction: Van_der_Waals_Interaction
*Contact Pair, interaction=Van_der_Waals, type=SURFACE TO SURFACE
Indenter_Surf, Specimen_Surf
** ----------------------------------------------------------------
** 
** STEP: Indentation
** 
*Step, name=Indentation, nlgeom=YES, inc=100000
*Dynamic,application=QUASI-STATIC,initial=NO
0.05,1.,1e-10,0.05
** 
** BOUNDARY CONDITIONS
** 
** Name: Indenter_Motion Type: Displacement/Rotation
*Boundary
Indenter_RP, 2, 2, -0.2
** 
** OUTPUT REQUESTS
** 
*Restart, write, frequency=0
** 
** FIELD OUTPUT: F-Output-1
** 
*Output, field, variable=PRESELECT, frequency=1
** 
** HISTORY OUTPUT: H-Output-2
** 
*Output, history, frequency=1
*Node Output, nset=Indenter_RP
RF2, U2
** 
** HISTORY OUTPUT: H-Output-1
** 
*Output, history, variable=PRESELECT, frequency=1
*End Step
** ----------------------------------------------------------------
** 
** STEP: Unloading
** 
*Step, name=Unloading, nlgeom=YES, inc=10000
*Dynamic,application=QUASI-STATIC,initial=NO
0.05,1.,1e-10,0.05
** 
** BOUNDARY CONDITIONS
** 
** Name: Indenter_Motion Type: Displacement/Rotation
*Boundary
Indenter_RP, 2, 2
** 
** OUTPUT REQUESTS
** 
*Restart, write, frequency=0
** 
** FIELD OUTPUT: F-Output-1
** 
*Output, field, variable=PRESELECT, frequency=1
** 
** HISTORY OUTPUT: H-Output-2
** 
*Output, history, frequency=1
*Node Output, nset=Indenter_RP
RF2, U2
** 
** HISTORY OUTPUT: H-Output-1
** 
*Output, history, variable=PRESELECT, frequency=1
*End Step
